*SPEF "1481-1998"
*DESIGN "i2c_master_top"
*DATE "Fri May 17 14:59:22 2024"
*VENDOR "Synopsys, Inc."
*PROGRAM "icc2 /eda/synopsys/icc2/V-2023.12/linux64/nwtn/bin/icc2_exec"
*VERSION "V-2023.12 Nov 23, 2023"
*DESIGN_FLOW "ICC2 SPEF DR"
*DIVIDER /
*DELIMITER :
*BUS_DELIMITER [ ]
*T_UNIT 1 NS
*C_UNIT 1 FF
*R_UNIT 1 OHM
*L_UNIT 1 HENRY

// XY_UNIT 1 UM
// PARASITIC_TECH maxTLU at -40.000 degree

*NAME_MAP
*1 wb_clk_i
*2 wb_rst_i
*3 arst_i
*4 wb_adr_i[2]
*5 wb_adr_i[1]
*6 wb_adr_i[0]
*7 wb_dat_i[7]
*8 wb_dat_i[6]
*9 wb_dat_i[5]
*10 wb_dat_i[4]
*11 wb_dat_i[3]
*12 wb_dat_i[2]
*13 wb_dat_i[1]
*14 wb_dat_i[0]
*15 wb_dat_o[7]
*16 wb_dat_o[6]
*17 wb_dat_o[5]
*18 wb_dat_o[4]
*19 wb_dat_o[3]
*20 wb_dat_o[2]
*21 wb_dat_o[1]
*22 wb_dat_o[0]
*23 wb_we_i
*24 wb_stb_i
*25 wb_cyc_i
*26 wb_ack_o
*27 wb_inta_o
*28 scl_pad_i
*29 scl_pad_o
*30 scl_padoen_o
*31 sda_pad_i
*32 sda_pad_o
*33 sda_padoen_o
*34 VDD
*35 VSS
*36 GVDD
*37 GVSS
*38 wb_ack_o_reg
*39 ctr_reg_7_
*40 ctr_reg_6_
*41 ctr_reg_5_
*42 ctr_reg_4_
*43 ctr_reg_3_
*44 ctr_reg_2_
*45 ctr_reg_1_
*46 ctr_reg_0_
*47 txr_reg_7_
*48 txr_reg_6_
*49 txr_reg_5_
*50 txr_reg_4_
*51 txr_reg_3_
*52 txr_reg_2_
*53 txr_reg_1_
*54 txr_reg_0_
*55 prer_reg_15_
*56 prer_reg_14_
*57 prer_reg_13_
*58 prer_reg_12_
*59 prer_reg_11_
*60 prer_reg_10_
*61 prer_reg_9_
*62 prer_reg_8_
*63 prer_reg_7_
*64 prer_reg_6_
*65 prer_reg_5_
*66 prer_reg_4_
*67 prer_reg_3_
*68 prer_reg_2_
*69 prer_reg_1_
*70 prer_reg_0_
*71 cr_reg_3_
*72 cr_reg_7_
*73 cr_reg_6_
*74 wb_dat_o_reg_6_
*75 cr_reg_5_
*76 cr_reg_4_
*77 wb_dat_o_reg_4_
*78 wb_dat_o_reg_3_
*79 cr_reg_2_
*80 wb_dat_o_reg_2_
*81 cr_reg_1_
*82 cr_reg_0_
*83 al_reg
*84 wb_dat_o_reg_5_
*85 rxack_reg
*86 wb_dat_o_reg_7_
*87 tip_reg
*88 wb_dat_o_reg_1_
*89 irq_flag_reg
*90 wb_dat_o_reg_0_
*91 wb_inta_o_reg
*92 U34
*93 U35
*94 U36
*95 U37
*96 U38
*97 U39
*98 U40
*99 U41
*100 U42
*101 U43
*102 U44
*103 U45
*104 U46
*105 U47
*106 U48
*107 U49
*108 U50
*109 U51
*110 U52
*111 U53
*112 U54
*113 U55
*114 U56
*115 U57
*116 U58
*117 U59
*118 U60
*119 U61
*120 U62
*121 U63
*122 U64
*123 U65
*124 U66
*125 U67
*126 U68
*127 U69
*128 U70
*129 U72
*130 U73
*131 U74
*132 U75
*133 U76
*134 U77
*135 U78
*136 U79
*137 U81
*138 U82
*139 U83
*140 U84
*141 U85
*142 U86
*143 U87
*144 U88
*145 U89
*146 U90
*147 U91
*148 U92
*149 U93
*150 U94
*151 U95
*152 U96
*153 U97
*154 U98
*155 U99
*156 U100
*157 U101
*158 U102
*159 U103
*160 U104
*161 U105
*162 U106
*163 U107
*164 U108
*165 U110
*166 U111
*167 U112
*168 U113
*169 U114
*170 U115
*171 byte_controller/bit_controller/ctmTdsLR_1_286
*172 HFSINV_1728_1
*173 U119
*174 U120
*175 U121
*176 U122
*177 U123
*178 U124
*179 U125
*180 U126
*181 U127
*182 U128
*183 U129
*184 U130
*185 U131
*186 U132
*187 U133
*188 U134
*189 U135
*190 U136
*191 U137
*192 U138
*193 U139
*194 U140
*195 U141
*196 U142
*197 U143
*198 U144
*199 U145
*200 U146
*201 U147
*202 U148
*203 U149
*204 U150
*205 byte_controller/ld_reg
*206 byte_controller/sr_reg_1_
*207 byte_controller/sr_reg_2_
*208 byte_controller/sr_reg_3_
*209 byte_controller/sr_reg_4_
*210 byte_controller/sr_reg_5_
*211 byte_controller/sr_reg_6_
*212 byte_controller/sr_reg_7_
*213 byte_controller/core_txd_reg
*214 byte_controller/shift_reg
*215 byte_controller/sr_reg_0_
*216 byte_controller/dcnt_reg_0_
*217 byte_controller/dcnt_reg_1_
*218 byte_controller/dcnt_reg_2_
*219 byte_controller/c_state_reg_1_
*220 byte_controller/c_state_reg_4_
*221 byte_controller/cmd_ack_reg
*222 byte_controller/core_cmd_reg_1_
*223 byte_controller/core_cmd_reg_0_
*224 byte_controller/c_state_reg_0_
*225 byte_controller/c_state_reg_2_
*226 byte_controller/c_state_reg_3_
*227 byte_controller/core_cmd_reg_2_
*228 byte_controller/core_cmd_reg_3_
*229 byte_controller/ack_out_reg
*230 byte_controller/U31
*231 byte_controller/U32
*232 byte_controller/U33
*233 byte_controller/U34
*234 byte_controller/U35
*235 byte_controller/U36
*236 byte_controller/U37
*237 byte_controller/U38
*238 byte_controller/U39
*239 byte_controller/U40
*240 byte_controller/ZCTSBUF_1353_577
*241 byte_controller/ZCTSBUF_2377_578
*242 byte_controller/U42
*243 byte_controller/U43
*244 byte_controller/bit_controller/ctmTdsLR_1_291
*245 byte_controller/U45
*246 byte_controller/U46
*247 byte_controller/U47
*248 byte_controller/U48
*249 byte_controller/U49
*250 byte_controller/U50
*251 byte_controller/U51
*252 byte_controller/ctmTdsLR_1_295
*253 byte_controller/ctmTdsLR_2_296
*254 byte_controller/U54
*255 byte_controller/U55
*256 byte_controller/U56
*257 byte_controller/U57
*258 byte_controller/U59
*259 byte_controller/U60
*260 byte_controller/U61
*261 byte_controller/U62
*262 byte_controller/U63
*263 byte_controller/U64
*264 byte_controller/U65
*265 byte_controller/U66
*266 byte_controller/U67
*267 byte_controller/U68
*268 byte_controller/U69
*269 byte_controller/U70
*270 byte_controller/U71
*271 byte_controller/U72
*272 byte_controller/U73
*273 byte_controller/U74
*274 byte_controller/U75
*275 byte_controller/U76
*276 byte_controller/U77
*277 byte_controller/U78
*278 byte_controller/U79
*279 byte_controller/HFSBUF_585_2
*280 HFSBUF_747_3
*281 byte_controller/U5
*282 byte_controller/U6
*283 byte_controller/U7
*284 byte_controller/U8
*285 byte_controller/U9
*286 byte_controller/U10
*287 byte_controller/U11
*288 byte_controller/U12
*289 byte_controller/U13
*290 byte_controller/U14
*291 ZCTSINV_3676_579
*292 byte_controller/bit_controller/ctmTdsLR_2_292
*293 byte_controller/U17
*294 byte_controller/U18
*295 byte_controller/U19
*296 byte_controller/U20
*297 byte_controller/U21
*298 byte_controller/U22
*299 byte_controller/U23
*300 byte_controller/U24
*301 byte_controller/U25
*302 byte_controller/U26
*303 byte_controller/U27
*304 byte_controller/U28
*305 byte_controller/U29
*306 byte_controller/U30
*307 byte_controller/U58
*308 byte_controller/U80
*309 byte_controller/bit_controller/cSDA_reg_0_
*310 byte_controller/bit_controller/cSDA_reg_1_
*311 byte_controller/bit_controller/cSCL_reg_0_
*312 byte_controller/bit_controller/cSCL_reg_1_
*313 byte_controller/bit_controller/filter_cnt_reg_0_
*314 byte_controller/bit_controller/filter_cnt_reg_7_
*315 byte_controller/bit_controller/filter_cnt_reg_1_
*316 byte_controller/bit_controller/filter_cnt_reg_2_
*317 byte_controller/bit_controller/filter_cnt_reg_3_
*318 byte_controller/bit_controller/filter_cnt_reg_4_
*319 byte_controller/bit_controller/filter_cnt_reg_5_
*320 byte_controller/bit_controller/filter_cnt_reg_6_
*321 byte_controller/bit_controller/filter_cnt_reg_8_
*322 byte_controller/bit_controller/filter_cnt_reg_9_
*323 byte_controller/bit_controller/filter_cnt_reg_10_
*324 byte_controller/bit_controller/filter_cnt_reg_11_
*325 byte_controller/bit_controller/filter_cnt_reg_12_
*326 byte_controller/bit_controller/filter_cnt_reg_13_
*327 byte_controller/bit_controller/fSCL_reg_0_
*328 byte_controller/bit_controller/fSCL_reg_1_
*329 byte_controller/bit_controller/fSCL_reg_2_
*330 byte_controller/bit_controller/fSDA_reg_0_
*331 byte_controller/bit_controller/fSDA_reg_1_
*332 byte_controller/bit_controller/fSDA_reg_2_
*333 byte_controller/bit_controller/sSCL_reg
*334 byte_controller/bit_controller/dSCL_reg
*335 byte_controller/bit_controller/sSDA_reg
*336 byte_controller/bit_controller/dSDA_reg
*337 byte_controller/bit_controller/sta_condition_reg
*338 byte_controller/bit_controller/sto_condition_reg
*339 byte_controller/bit_controller/busy_reg
*340 byte_controller/bit_controller/dout_reg
*341 byte_controller/bit_controller/c_state_reg_0_
*342 byte_controller/bit_controller/scl_oen_reg
*343 byte_controller/bit_controller/dscl_oen_reg
*344 byte_controller/bit_controller/slave_wait_reg
*345 byte_controller/bit_controller/cnt_reg_0_
*346 byte_controller/bit_controller/clk_en_reg
*347 byte_controller/bit_controller/cmd_stop_reg
*348 byte_controller/bit_controller/c_state_reg_1_
*349 byte_controller/bit_controller/c_state_reg_2_
*350 byte_controller/bit_controller/c_state_reg_3_
*351 byte_controller/bit_controller/c_state_reg_4_
*352 byte_controller/bit_controller/c_state_reg_13_
*353 byte_controller/bit_controller/c_state_reg_14_
*354 byte_controller/bit_controller/c_state_reg_15_
*355 byte_controller/bit_controller/sda_chk_reg
*356 byte_controller/bit_controller/c_state_reg_16_
*357 byte_controller/bit_controller/c_state_reg_5_
*358 byte_controller/bit_controller/c_state_reg_6_
*359 byte_controller/bit_controller/c_state_reg_7_
*360 byte_controller/bit_controller/c_state_reg_8_
*361 byte_controller/bit_controller/c_state_reg_9_
*362 byte_controller/bit_controller/c_state_reg_10_
*363 byte_controller/bit_controller/c_state_reg_11_
*364 byte_controller/bit_controller/c_state_reg_12_
*365 byte_controller/bit_controller/sda_oen_reg
*366 byte_controller/bit_controller/al_reg
*367 byte_controller/bit_controller/cmd_ack_reg
*368 byte_controller/bit_controller/cnt_reg_15_
*369 byte_controller/bit_controller/cnt_reg_1_
*370 byte_controller/bit_controller/cnt_reg_2_
*371 byte_controller/bit_controller/cnt_reg_3_
*372 byte_controller/bit_controller/cnt_reg_4_
*373 byte_controller/bit_controller/cnt_reg_5_
*374 byte_controller/bit_controller/cnt_reg_6_
*375 byte_controller/bit_controller/cnt_reg_7_
*376 byte_controller/bit_controller/cnt_reg_8_
*377 byte_controller/bit_controller/cnt_reg_9_
*378 byte_controller/bit_controller/cnt_reg_10_
*379 byte_controller/bit_controller/cnt_reg_11_
*380 byte_controller/bit_controller/cnt_reg_12_
*381 byte_controller/bit_controller/cnt_reg_13_
*382 byte_controller/bit_controller/cnt_reg_14_
*383 byte_controller/ctmTdsLR_1_293
*384 byte_controller/bit_controller/U4
*385 byte_controller/bit_controller/U6
*386 byte_controller/bit_controller/U8
*387 byte_controller/bit_controller/U9
*388 byte_controller/bit_controller/U11
*389 byte_controller/bit_controller/U13
*390 byte_controller/bit_controller/U15
*391 byte_controller/bit_controller/U17
*392 byte_controller/bit_controller/U19
*393 byte_controller/bit_controller/U21
*394 byte_controller/bit_controller/U23
*395 byte_controller/bit_controller/U25
*396 byte_controller/bit_controller/U27
*397 byte_controller/bit_controller/U29
*398 byte_controller/bit_controller/U31
*399 byte_controller/bit_controller/U33
*400 byte_controller/bit_controller/U35
*401 byte_controller/bit_controller/U37
*402 byte_controller/bit_controller/U39
*403 byte_controller/bit_controller/U44
*404 byte_controller/bit_controller/U45
*405 byte_controller/bit_controller/ctmTdsLR_1_294
*406 byte_controller/bit_controller/U49
*407 byte_controller/bit_controller/U51
*408 byte_controller/bit_controller/U53
*409 byte_controller/bit_controller/U55
*410 byte_controller/bit_controller/U56
*411 byte_controller/bit_controller/U60
*412 byte_controller/bit_controller/U61
*413 byte_controller/bit_controller/U62
*414 byte_controller/bit_controller/U63
*415 byte_controller/bit_controller/U67
*416 byte_controller/bit_controller/U68
*417 byte_controller/bit_controller/U69
*418 byte_controller/bit_controller/U70
*419 byte_controller/bit_controller/U71
*420 byte_controller/bit_controller/U74
*421 byte_controller/bit_controller/U75
*422 byte_controller/bit_controller/ctmTdsLR_1_287
*423 byte_controller/bit_controller/U78
*424 byte_controller/bit_controller/U79
*425 byte_controller/bit_controller/U82
*426 byte_controller/bit_controller/U88
*427 byte_controller/bit_controller/U89
*428 byte_controller/bit_controller/U92
*429 byte_controller/bit_controller/U93
*430 byte_controller/bit_controller/U94
*431 byte_controller/bit_controller/U100
*432 byte_controller/bit_controller/U101
*433 byte_controller/bit_controller/U102
*434 byte_controller/bit_controller/U103
*435 byte_controller/bit_controller/U104
*436 byte_controller/bit_controller/U105
*437 ZCTSINV_4680_580
*438 byte_controller/bit_controller/U110
*439 byte_controller/bit_controller/U111
*440 byte_controller/bit_controller/U112
*441 byte_controller/bit_controller/U113
*442 byte_controller/bit_controller/U114
*443 byte_controller/bit_controller/U115
*444 byte_controller/bit_controller/U116
*445 byte_controller/bit_controller/U118
*446 byte_controller/bit_controller/U120
*447 byte_controller/bit_controller/U122
*448 byte_controller/bit_controller/U123
*449 byte_controller/bit_controller/U124
*450 byte_controller/bit_controller/copt_h_inst_733
*451 byte_controller/bit_controller/copt_h_inst_734
*452 byte_controller/bit_controller/U126
*453 byte_controller/bit_controller/U127
*454 byte_controller/bit_controller/U128
*455 byte_controller/ctmTdsLR_1_288
*456 byte_controller/ctmTdsLR_2_289
*457 byte_controller/bit_controller/ctmTdsLR_1_290
*458 byte_controller/bit_controller/U137
*459 byte_controller/bit_controller/U141
*460 byte_controller/bit_controller/U142
*461 byte_controller/bit_controller/U143
*462 byte_controller/bit_controller/U145
*463 byte_controller/bit_controller/U146
*464 byte_controller/bit_controller/U150
*465 byte_controller/bit_controller/U152
*466 byte_controller/bit_controller/U153
*467 byte_controller/bit_controller/U155
*468 byte_controller/bit_controller/U156
*469 byte_controller/bit_controller/U161
*470 byte_controller/bit_controller/U166
*471 byte_controller/bit_controller/U171
*472 byte_controller/bit_controller/U172
*473 byte_controller/bit_controller/U173
*474 byte_controller/bit_controller/U174
*475 byte_controller/bit_controller/U175
*476 byte_controller/bit_controller/U176
*477 byte_controller/bit_controller/U177
*478 byte_controller/bit_controller/U182
*479 byte_controller/bit_controller/U183
*480 byte_controller/bit_controller/U184
*481 byte_controller/bit_controller/U185
*482 byte_controller/HFSBUF_350_4
*483 HFSBUF_72_5
*484 byte_controller/bit_controller/U18
*485 byte_controller/bit_controller/U20
*486 byte_controller/bit_controller/U22
*487 byte_controller/bit_controller/U26
*488 byte_controller/bit_controller/U28
*489 byte_controller/bit_controller/U30
*490 byte_controller/bit_controller/U32
*491 byte_controller/bit_controller/U34
*492 byte_controller/bit_controller/U36
*493 byte_controller/bit_controller/U38
*494 byte_controller/bit_controller/U40
*495 byte_controller/bit_controller/U41
*496 byte_controller/bit_controller/U42
*497 byte_controller/bit_controller/U43
*498 byte_controller/bit_controller/U48
*499 byte_controller/bit_controller/U50
*500 byte_controller/bit_controller/U52
*501 ZCTSINV_4865_581
*502 byte_controller/bit_controller/U57
*503 byte_controller/bit_controller/ctmTdsLR_1_732
*504 byte_controller/bit_controller/U64
*505 byte_controller/bit_controller/U65
*506 byte_controller/bit_controller/U66
*507 byte_controller/bit_controller/U72
*508 byte_controller/bit_controller/U73
*509 byte_controller/bit_controller/U76
*510 byte_controller/bit_controller/U80
*511 byte_controller/bit_controller/U81
*512 byte_controller/bit_controller/U83
*513 byte_controller/bit_controller/U84
*514 byte_controller/bit_controller/U85
*515 byte_controller/bit_controller/U86
*516 byte_controller/bit_controller/U87
*517 byte_controller/bit_controller/U90
*518 byte_controller/bit_controller/U91
*519 byte_controller/bit_controller/U95
*520 byte_controller/bit_controller/U96
*521 byte_controller/bit_controller/U97
*522 byte_controller/bit_controller/U98
*523 byte_controller/bit_controller/U99
*524 byte_controller/bit_controller/copt_h_inst_735
*525 byte_controller/bit_controller/U108
*526 byte_controller/bit_controller/sub_260/U1
*527 byte_controller/bit_controller/sub_260/U2
*528 byte_controller/bit_controller/sub_260/U3
*529 byte_controller/bit_controller/sub_260/U4
*530 byte_controller/bit_controller/sub_260/U5
*531 byte_controller/bit_controller/sub_260/U6
*532 byte_controller/bit_controller/sub_260/U7
*533 byte_controller/bit_controller/sub_260/U8
*534 byte_controller/bit_controller/sub_260/U9
*535 byte_controller/bit_controller/sub_260/U10
*536 byte_controller/bit_controller/sub_260/U11
*537 byte_controller/bit_controller/sub_260/U12
*538 byte_controller/bit_controller/sub_260/U13
*539 byte_controller/bit_controller/sub_260/U14
*540 byte_controller/bit_controller/sub_260/U15
*541 byte_controller/bit_controller/sub_260/U16
*542 byte_controller/bit_controller/sub_260/U17
*543 byte_controller/bit_controller/sub_260/U18
*544 byte_controller/bit_controller/sub_260/U19
*545 byte_controller/bit_controller/sub_260/U20
*546 byte_controller/bit_controller/sub_260/U21
*547 byte_controller/bit_controller/sub_260/U22
*548 byte_controller/bit_controller/sub_260/U23
*549 byte_controller/bit_controller/sub_260/U24
*550 byte_controller/bit_controller/sub_260/U25
*551 byte_controller/bit_controller/sub_260/U26
*552 byte_controller/bit_controller/sub_260/U27
*553 byte_controller/bit_controller/sub_260/U28
*554 byte_controller/bit_controller/sub_260/U29
*555 byte_controller/bit_controller/sub_260/U30
*556 byte_controller/bit_controller/sub_260/U31
*557 byte_controller/bit_controller/sub_260/U32
*558 byte_controller/bit_controller/sub_260/U33
*559 byte_controller/bit_controller/sub_260/U34
*560 byte_controller/bit_controller/sub_260/U35
*561 byte_controller/bit_controller/sub_260/U36
*562 byte_controller/bit_controller/sub_260/U37
*563 byte_controller/bit_controller/sub_228/U1
*564 byte_controller/bit_controller/sub_228/U2
*565 byte_controller/bit_controller/sub_228/U3
*566 byte_controller/bit_controller/sub_228/U4
*567 byte_controller/bit_controller/sub_228/U5
*568 byte_controller/bit_controller/sub_228/U6
*569 byte_controller/bit_controller/sub_228/U7
*570 byte_controller/bit_controller/sub_228/U8
*571 byte_controller/bit_controller/sub_228/U9
*572 byte_controller/bit_controller/sub_228/U10
*573 byte_controller/bit_controller/sub_228/U11
*574 byte_controller/bit_controller/sub_228/U12
*575 byte_controller/bit_controller/sub_228/U13
*576 byte_controller/bit_controller/sub_228/U14
*577 byte_controller/bit_controller/sub_228/U15
*578 byte_controller/bit_controller/sub_228/U16
*579 byte_controller/bit_controller/sub_228/U17
*580 byte_controller/bit_controller/sub_228/U18
*581 byte_controller/bit_controller/sub_228/U19
*582 byte_controller/bit_controller/sub_228/U20
*583 byte_controller/bit_controller/sub_228/U21
*584 byte_controller/bit_controller/sub_228/U22
*585 byte_controller/bit_controller/sub_228/U23
*586 byte_controller/bit_controller/sub_228/U24
*587 byte_controller/bit_controller/sub_228/U25
*588 byte_controller/bit_controller/sub_228/U26
*589 byte_controller/bit_controller/sub_228/U27
*590 byte_controller/bit_controller/sub_228/U28
*591 byte_controller/bit_controller/sub_228/U29
*592 byte_controller/bit_controller/sub_228/U30
*593 byte_controller/bit_controller/sub_228/U31
*594 byte_controller/bit_controller/sub_228/U32
*595 byte_controller/bit_controller/sub_228/U33
*596 byte_controller/bit_controller/sub_228/U34
*597 byte_controller/bit_controller/sub_228/U35
*598 byte_controller/bit_controller/sub_228/U36
*599 byte_controller/bit_controller/sub_228/U37
*600 byte_controller/bit_controller/sub_228/U38
*601 byte_controller/bit_controller/sub_228/U39
*602 byte_controller/bit_controller/sub_228/U40
*603 byte_controller/bit_controller/sub_228/U41
*604 byte_controller/bit_controller/sub_228/U42
*605 byte_controller/bit_controller/sub_228/U43
*606 byte_controller/bit_controller/copt_h_inst_736
*607 copt_h_inst_737
*608 copt_h_inst_739
*609 copt_h_inst_740
*610 byte_controller/copt_h_inst_741
*611 byte_controller/bit_controller/copt_h_inst_742
*612 copt_h_inst_743
*613 copt_h_inst_744
*614 byte_controller/bit_controller/copt_h_inst_745
*615 byte_controller/bit_controller/copt_h_inst_746
*616 copt_h_inst_747
*617 copt_gre_h_inst_931
*618 byte_controller/bit_controller/copt_h_inst_749
*619 copt_h_inst_750
*620 byte_controller/copt_h_inst_751
*621 copt_h_inst_752
*622 copt_h_inst_753
*623 copt_h_inst_754
*624 byte_controller/copt_h_inst_755
*625 copt_h_inst_756
*626 copt_h_inst_757
*627 copt_h_inst_758
*628 copt_h_inst_759
*629 copt_h_inst_760
*630 copt_h_inst_761
*631 byte_controller/copt_h_inst_762
*632 byte_controller/bit_controller/copt_h_inst_763
*633 copt_h_inst_764
*634 copt_h_inst_765
*635 copt_h_inst_766
*636 xofiller!SHFILL1!x183200y100000
*637 xofiller!SHFILL1!x186400y100000
*638 xofiller!SHFILL1!x189600y100000
*639 byte_controller/bit_controller/copt_h_inst_769
*640 copt_h_inst_770
*641 byte_controller/copt_h_inst_771
*642 byte_controller/bit_controller/copt_h_inst_772
*643 copt_h_inst_773
*644 copt_h_inst_774
*645 copt_h_inst_775
*646 copt_h_inst_776
*647 copt_h_inst_777
*648 copt_h_inst_778
*649 xofiller!SHFILL1!x244000y100000
*650 xofiller!SHFILL1!x247200y100000
*651 xofiller!SHFILL1!x250400y100000
*652 xofiller!SHFILL1!x253600y100000
*653 byte_controller/bit_controller/copt_h_inst_781
*654 copt_h_inst_782
*655 copt_h_inst_783
*656 copt_h_inst_784
*657 xofiller!SHFILL1!x256800y100000
*658 xofiller!SHFILL1!x260000y100000
*659 xofiller!SHFILL1!x263200y100000
*660 xofiller!SHFILL1!x266400y100000
*661 byte_controller/bit_controller/copt_h_inst_787
*662 xofiller!SHFILL1!x493600y100000
*663 xofiller!SHFILL1!x496800y100000
*664 copt_h_inst_789
*665 copt_h_inst_790
*666 byte_controller/bit_controller/copt_h_inst_791
*667 copt_h_inst_792
*668 copt_h_inst_793
*669 byte_controller/copt_h_inst_794
*670 copt_h_inst_795
*671 byte_controller/bit_controller/sub_260/copt_h_inst_796
*672 byte_controller/copt_h_inst_797
*673 xofiller!SHFILL1!x541600y100000
*674 xofiller!SHFILL1!x656800y100000
*675 byte_controller/bit_controller/sub_260/copt_h_inst_799
*676 xofiller!SHFILL1!x660000y100000
*677 xofiller!SHFILL1!x663200y100000
*678 copt_h_inst_801
*679 byte_controller/bit_controller/copt_h_inst_802
*680 byte_controller/bit_controller/copt_h_inst_803
*681 copt_h_inst_804
*682 xofiller!SHFILL1!x717600y100000
*683 xofiller!SHFILL1!x720800y100000
*684 byte_controller/copt_h_inst_806
*685 byte_controller/bit_controller/copt_h_inst_807
*686 xofiller!SHFILL1!x724000y100000
*687 xofiller!SHFILL1!x727200y100000
*688 byte_controller/copt_h_inst_809
*689 copt_h_inst_810
*690 xofiller!SHFILL1!x730400y100000
*691 xofiller!SHFILL1!x762400y100000
*692 byte_controller/bit_controller/sub_260/copt_h_inst_812
*693 xofiller!SHFILL1!x765600y100000
*694 xofiller!SHFILL1!x768800y100000
*695 byte_controller/bit_controller/sub_260/copt_h_inst_814
*696 byte_controller/copt_h_inst_815
*697 byte_controller/copt_h_inst_816
*698 copt_h_inst_817
*699 xofiller!SHFILL1!x772000y100000
*700 xofiller!SHFILL1!x775200y100000
*701 byte_controller/bit_controller/copt_h_inst_819
*702 byte_controller/copt_h_inst_820
*703 byte_controller/bit_controller/sub_260/copt_h_inst_821
*704 byte_controller/bit_controller/sub_260/copt_h_inst_822
*705 byte_controller/bit_controller/sub_260/copt_h_inst_823
*706 byte_controller/bit_controller/sub_260/copt_h_inst_824
*707 byte_controller/bit_controller/sub_260/copt_h_inst_825
*708 byte_controller/bit_controller/sub_260/copt_h_inst_826
*709 byte_controller/bit_controller/copt_h_inst_827
*710 byte_controller/bit_controller/copt_h_inst_828
*711 byte_controller/bit_controller/copt_h_inst_829
*712 byte_controller/bit_controller/copt_h_inst_830
*713 byte_controller/copt_h_inst_831
*714 byte_controller/bit_controller/copt_h_inst_832
*715 copt_h_inst_833
*716 byte_controller/bit_controller/copt_h_inst_834
*717 xofiller!SHFILL1!x778400y100000
*718 xofiller!SHFILL1!x800800y100000
*719 byte_controller/bit_controller/copt_h_inst_836
*720 byte_controller/bit_controller/copt_h_inst_837
*721 byte_controller/bit_controller/copt_h_inst_838
*722 byte_controller/bit_controller/copt_h_inst_839
*723 byte_controller/bit_controller/copt_h_inst_840
*724 byte_controller/bit_controller/copt_h_inst_841
*725 byte_controller/bit_controller/copt_h_inst_842
*726 byte_controller/bit_controller/copt_h_inst_843
*727 byte_controller/bit_controller/copt_h_inst_844
*728 byte_controller/bit_controller/copt_h_inst_845
*729 byte_controller/copt_h_inst_846
*730 byte_controller/bit_controller/copt_h_inst_847
*731 byte_controller/bit_controller/copt_h_inst_848
*732 byte_controller/copt_h_inst_849
*733 byte_controller/bit_controller/copt_h_inst_850
*734 copt_h_inst_851
*735 copt_h_inst_852
*736 copt_h_inst_853
*737 byte_controller/copt_h_inst_854
*738 xofiller!SHFILL1!x804000y100000
*739 xofiller!SHFILL1!x807200y100000
*740 byte_controller/bit_controller/copt_h_inst_856
*741 xofiller!SHFILL1!x810400y100000
*742 xofiller!SHFILL1!x896800y100000
*743 byte_controller/bit_controller/copt_h_inst_858
*744 byte_controller/bit_controller/copt_h_inst_859
*745 byte_controller/bit_controller/copt_h_inst_860
*746 byte_controller/bit_controller/copt_h_inst_861
*747 byte_controller/bit_controller/copt_h_inst_862
*748 byte_controller/bit_controller/copt_h_inst_863
*749 xofiller!SHFILL1!x900000y100000
*750 xofiller!SHFILL1!x903200y100000
*751 byte_controller/bit_controller/copt_h_inst_865
*752 byte_controller/bit_controller/copt_h_inst_866
*753 byte_controller/bit_controller/copt_h_inst_867
*754 byte_controller/bit_controller/copt_h_inst_868
*755 byte_controller/bit_controller/copt_h_inst_869
*756 byte_controller/bit_controller/copt_h_inst_870
*757 copt_h_inst_871
*758 byte_controller/bit_controller/copt_h_inst_872
*759 byte_controller/bit_controller/copt_h_inst_873
*760 byte_controller/bit_controller/copt_h_inst_874
*761 xofiller!SHFILL1!x957600y100000
*762 xofiller!SHFILL1!x960800y100000
*763 byte_controller/bit_controller/copt_h_inst_876
*764 byte_controller/bit_controller/copt_h_inst_877
*765 byte_controller/bit_controller/copt_h_inst_878
*766 byte_controller/bit_controller/copt_h_inst_879
*767 byte_controller/bit_controller/copt_h_inst_880
*768 xofiller!SHFILL1!x964000y100000
*769 xofiller!SHFILL1!x967200y100000
*770 xofiller!SHFILL1!x970400y100000
*771 xofiller!SHFILL1!x973600y100000
*772 byte_controller/bit_controller/copt_h_inst_883
*773 byte_controller/bit_controller/copt_h_inst_884
*774 byte_controller/bit_controller/copt_h_inst_885
*775 byte_controller/bit_controller/copt_h_inst_886
*776 byte_controller/bit_controller/copt_h_inst_887
*777 byte_controller/bit_controller/copt_h_inst_888
*778 xofiller!SHFILL1!x976800y100000
*779 xofiller!SHFILL1!x1178400y100000
*780 xofiller!SHFILL1!x1181600y100000
*781 xofiller!SHFILL1!x1184800y100000
*782 xofiller!SHFILL1!x1188000y100000
*783 xofiller!SHFILL1!x1191200y100000
*784 xofiller!SHFILL1!x1194400y100000
*785 xofiller!SHFILL1!x1197600y100000
*786 xofiller!SHFILL1!x1200800y100000
*787 xofiller!SHFILL1!x1204000y100000
*788 byte_controller/bit_controller/copt_h_inst_894
*789 byte_controller/bit_controller/copt_h_inst_895
*790 byte_controller/bit_controller/copt_h_inst_896
*791 byte_controller/copt_h_inst_897
*792 byte_controller/copt_h_inst_898
*793 byte_controller/copt_h_inst_899
*794 byte_controller/bit_controller/copt_h_inst_900
*795 xofiller!SHFILL1!x1207200y100000
*796 xofiller!SHFILL1!x1210400y100000
*797 copt_h_inst_902
*798 byte_controller/bit_controller/copt_h_inst_903
*799 copt_h_inst_904
*800 xofiller!SHFILL1!x1213600y100000
*801 xofiller!SHFILL1!x1216800y100000
*802 xofiller!SHFILL1!x1220000y100000
*803 xofiller!SHFILL1!x1223200y100000
*804 byte_controller/bit_controller/copt_h_inst_907
*805 byte_controller/copt_h_inst_908
*806 byte_controller/bit_controller/copt_h_inst_909
*807 byte_controller/copt_h_inst_910
*808 byte_controller/copt_h_inst_911
*809 byte_controller/bit_controller/copt_h_inst_912
*810 copt_h_inst_913
*811 xofiller!SHFILL1!x1226400y100000
*812 xofiller!SHFILL1!x1229600y100000
*813 xofiller!SHFILL1!x1232800y100000
*814 xofiller!SHFILL1!x1236000y100000
*815 byte_controller/copt_h_inst_916
*816 byte_controller/bit_controller/copt_h_inst_917
*817 byte_controller/bit_controller/copt_h_inst_918
*818 byte_controller/copt_h_inst_919
*819 xofiller!SHFILL1!x1239200y100000
*820 xofiller!SHFILL1!x100000y128800
*821 byte_controller/copt_h_inst_921
*822 byte_controller/copt_h_inst_922
*823 xofiller!SHFILL1!x103200y128800
*824 xofiller!SHFILL1!x106400y128800
*825 xofiller!SHFILL1!x109600y128800
*826 xofiller!SHFILL1!x112800y128800
*827 byte_controller/bit_controller/copt_h_inst_925
*828 copt_gre_h_inst_926
*829 copt_gre_h_inst_927
*830 copt_gre_h_inst_928
*831 xofiller!SHFILL1!x116000y128800
*832 xofiller!SHFILL1!x119200y128800
*833 xofiller!SHFILL1!x122400y128800
*834 xofiller!SHFILL1!x125600y128800
*835 xofiller!SHFILL1!x128800y128800
*836 xofiller!SHFILL1!x132000y128800
*837 xofiller!SHFILL1!x135200y128800
*838 xofiller!SHFILL1!x138400y128800
*839 xofiller!SHFILL1!x141600y128800
*840 xofiller!SHFILL1!x144800y128800
*841 xofiller!SHFILL1!x148000y128800
*842 xofiller!SHFILL1!x151200y128800
*843 xofiller!SHFILL1!x266400y128800
*844 xofiller!SHFILL1!x269600y128800
*845 xofiller!SHFILL1!x272800y128800
*846 xofiller!SHFILL1!x276000y128800
*847 xofiller!SHFILL1!x279200y128800
*848 xofiller!SHFILL1!x282400y128800
*849 xofiller!SHFILL1!x285600y128800
*850 xofiller!SHFILL1!x288800y128800
*851 xofiller!SHFILL1!x292000y128800
*852 xofiller!SHFILL1!x295200y128800
*853 xofiller!SHFILL1!x298400y128800
*854 xofiller!SHFILL1!x343200y128800
*855 xofiller!SHFILL1!x346400y128800
*856 xofiller!SHFILL1!x349600y128800
*857 xofiller!SHFILL1!x352800y128800
*858 xofiller!SHFILL1!x356000y128800
*859 xofiller!SHFILL1!x359200y128800
*860 xofiller!SHFILL1!x362400y128800
*861 xofiller!SHFILL1!x365600y128800
*862 xofiller!SHFILL1!x368800y128800
*863 xofiller!SHFILL1!x372000y128800
*864 xofiller!SHFILL1!x375200y128800
*865 xofiller!SHFILL1!x378400y128800
*866 xofiller!SHFILL1!x381600y128800
*867 xofiller!SHFILL1!x384800y128800
*868 xofiller!SHFILL1!x388000y128800
*869 xofiller!SHFILL1!x391200y128800
*870 xofiller!SHFILL1!x394400y128800
*871 xofiller!SHFILL1!x397600y128800
*872 xofiller!SHFILL1!x400800y128800
*873 xofiller!SHFILL1!x404000y128800
*874 xofiller!SHFILL1!x407200y128800
*875 xofiller!SHFILL1!x452000y128800
*876 xofiller!SHFILL1!x455200y128800
*877 xofiller!SHFILL1!x458400y128800
*878 xofiller!SHFILL1!x461600y128800
*879 xofiller!SHFILL1!x506400y128800
*880 xofiller!SHFILL1!x509600y128800
*881 xofiller!SHFILL1!x512800y128800
*882 xofiller!SHFILL1!x516000y128800
*883 xofiller!SHFILL1!x519200y128800
*884 xofiller!SHFILL1!x522400y128800
*885 xofiller!SHFILL1!x525600y128800